/*--------------------------------*- C++ -*----------------------------------*\
  =========                 |
  \\      /  F ield         | OpenFOAM: The Open Source CFD Toolbox
   \\    /   O peration     | Website:  https://openfoam.org
    \\  /    A nd           | Version:  9
     \\/     M anipulation  |
\*---------------------------------------------------------------------------*/
FoamFile
{
    format      binary;
    class       polyBoundaryMesh;
    location    "constant/polyMesh";
    object      boundary;
}
// * * * * * * * * * * * * * * * * * * * * * * * * * * * * * * * * * * * * * //

8
(
    left
    {
        type            wall;
        inGroups        List<word> 1(wall);
        nFaces          0;
        startFace       39700;
    }
    right
    {
        type            wall;
        inGroups        List<word> 1(wall);
        nFaces          200;
        startFace       39700;
    }
    bottom
    {
        type            wall;
        inGroups        List<word> 1(wall);
        nFaces          100;
        startFace       39900;
    }
    top
    {
        type            wall;
        inGroups        List<word> 1(wall);
        nFaces          0;
        startFace       40000;
    }
    front
    {
        type            empty;
        inGroups        List<word> 1(empty);
        nFaces          20000;
        startFace       40000;
    }
    back
    {
        type            empty;
        inGroups        List<word> 1(empty);
        nFaces          20000;
        startFace       60000;
    }
    procBoundary1to0
    {
        type            processor;
        inGroups        List<word> 1(processor);
        nFaces          200;
        startFace       80000;
        matchTolerance  0.0001;
        myProcNo        1;
        neighbProcNo    0;
    }
    procBoundary1to3
    {
        type            processor;
        inGroups        List<word> 1(processor);
        nFaces          100;
        startFace       80200;
        matchTolerance  0.0001;
        myProcNo        1;
        neighbProcNo    3;
    }
)

// ************************************************************************* //
